175586
  -OEChem-07092505142D

 46 46  0     0  0  0  0  0  0999 V2000
    8.0785    2.2623    0.0000 S   0  0  0  0  0  0  0  0  0  0  0  0
    4.5981    1.2278    0.0000 S   0  0  0  0  0  0  0  0  0  0  0  0
    3.7321    2.7278    0.0000 Na  0  3  0  0  0  0  0  0  0  0  0  0
    8.9272    3.7723    0.0000 Na  0  3  0  0  0  0  0  0  0  0  0  0
    6.3301   -1.7723    0.0000 O   0  0  0  0  0  0  0  0  0  0  0  0
    8.0670    3.2623    0.0000 O   0  5  0  0  0  0  0  0  0  0  0  0
    9.0785    2.2739    0.0000 O   0  0  0  0  0  0  0  0  0  0  0  0
    7.0786    2.2508    0.0000 O   0  0  0  0  0  0  0  0  0  0  0  0
    3.7321    1.7278    0.0000 O   0  5  0  0  0  0  0  0  0  0  0  0
    5.0981    2.0938    0.0000 O   0  0  0  0  0  0  0  0  0  0  0  0
    4.0981    0.3617    0.0000 O   0  0  0  0  0  0  0  0  0  0  0  0
    9.8105   -1.8269    0.0000 O   0  0  0  0  0  0  0  0  0  0  0  0
    8.0785   -1.8069    0.0000 N   0  0  0  0  0  0  0  0  0  0  0  0
    4.5981   -0.7723    0.0000 N   0  0  0  0  0  0  0  0  0  0  0  0
    4.5981   -1.7723    0.0000 N   0  0  0  0  0  0  0  0  0  0  0  0
    7.1962    0.7277    0.0000 C   0  0  0  0  0  0  0  0  0  0  0  0
    7.1962   -0.2723    0.0000 C   0  0  0  0  0  0  0  0  0  0  0  0
    8.0901    1.2624    0.0000 C   0  0  0  0  0  0  0  0  0  0  0  0
    8.0901   -0.8069    0.0000 C   0  0  0  0  0  0  0  0  0  0  0  0
    6.3301    1.2278    0.0000 C   0  0  0  0  0  0  0  0  0  0  0  0
    6.3301   -0.7723    0.0000 C   0  0  0  0  0  0  0  0  0  0  0  0
    5.4641    0.7277    0.0000 C   0  0  0  0  0  0  0  0  0  0  0  0
    5.4641   -0.2723    0.0000 C   0  0  0  0  0  0  0  0  0  0  0  0
    8.9962    0.7486    0.0000 C   0  0  0  0  0  0  0  0  0  0  0  0
    8.9962   -0.2931    0.0000 C   0  0  0  0  0  0  0  0  0  0  0  0
    8.9387   -2.3168    0.0000 C   0  0  0  0  0  0  0  0  0  0  0  0
    8.9272   -3.3168    0.0000 C   0  0  0  0  0  0  0  0  0  0  0  0
    3.7321   -2.2723    0.0000 C   0  0  0  0  0  0  0  0  0  0  0  0
    2.8660   -1.7723    0.0000 C   0  0  0  0  0  0  0  0  0  0  0  0
    3.7321   -3.2723    0.0000 C   0  0  0  0  0  0  0  0  0  0  0  0
    2.0000   -2.2723    0.0000 C   0  0  0  0  0  0  0  0  0  0  0  0
    2.8660   -3.7723    0.0000 C   0  0  0  0  0  0  0  0  0  0  0  0
    2.0000   -3.2723    0.0000 C   0  0  0  0  0  0  0  0  0  0  0  0
    6.3301    1.8478    0.0000 H   0  0  0  0  0  0  0  0  0  0  0  0
    9.5319    1.0606    0.0000 H   0  0  0  0  0  0  0  0  0  0  0  0
    9.5319   -0.6051    0.0000 H   0  0  0  0  0  0  0  0  0  0  0  0
    7.5381   -2.1106    0.0000 H   0  0  0  0  0  0  0  0  0  0  0  0
    5.7932   -2.0823    0.0000 H   0  0  0  0  0  0  0  0  0  0  0  0
    8.3072   -3.3096    0.0000 H   0  0  0  0  0  0  0  0  0  0  0  0
    8.9200   -3.9367    0.0000 H   0  0  0  0  0  0  0  0  0  0  0  0
    9.5471   -3.3239    0.0000 H   0  0  0  0  0  0  0  0  0  0  0  0
    2.8660   -1.1523    0.0000 H   0  0  0  0  0  0  0  0  0  0  0  0
    4.2690   -3.5823    0.0000 H   0  0  0  0  0  0  0  0  0  0  0  0
    1.4631   -1.9623    0.0000 H   0  0  0  0  0  0  0  0  0  0  0  0
    2.8660   -4.3923    0.0000 H   0  0  0  0  0  0  0  0  0  0  0  0
    1.4631   -3.5823    0.0000 H   0  0  0  0  0  0  0  0  0  0  0  0
  1  6  1  0  0  0  0
  1  7  2  0  0  0  0
  1  8  2  0  0  0  0
  1 18  1  0  0  0  0
  2  9  1  0  0  0  0
  2 10  2  0  0  0  0
  2 11  2  0  0  0  0
  2 22  1  0  0  0  0
  5 21  1  0  0  0  0
  5 38  1  0  0  0  0
 12 26  2  0  0  0  0
 13 19  1  0  0  0  0
 13 26  1  0  0  0  0
 13 37  1  0  0  0  0
 14 15  2  0  0  0  0
 14 23  1  0  0  0  0
 15 28  1  0  0  0  0
 16 17  1  0  0  0  0
 16 18  2  0  0  0  0
 16 20  1  0  0  0  0
 17 19  2  0  0  0  0
 17 21  1  0  0  0  0
 18 24  1  0  0  0  0
 19 25  1  0  0  0  0
 20 22  2  0  0  0  0
 20 34  1  0  0  0  0
 21 23  2  0  0  0  0
 22 23  1  0  0  0  0
 24 25  2  0  0  0  0
 24 35  1  0  0  0  0
 25 36  1  0  0  0  0
 26 27  1  0  0  0  0
 27 39  1  0  0  0  0
 27 40  1  0  0  0  0
 27 41  1  0  0  0  0
 28 29  2  0  0  0  0
 28 30  1  0  0  0  0
 29 31  1  0  0  0  0
 29 42  1  0  0  0  0
 30 32  2  0  0  0  0
 30 43  1  0  0  0  0
 31 33  2  0  0  0  0
 31 44  1  0  0  0  0
 32 33  1  0  0  0  0
 32 45  1  0  0  0  0
 33 46  1  0  0  0  0
M  CHG  4   3   1   4   1   6  -1   9  -1
M  END
> <PUBCHEM_COMPOUND_CID>
175586

> <PUBCHEM_COMPOUND_CANONICALIZED>
1

> <PUBCHEM_CACTVS_COMPLEXITY>
863

> <PUBCHEM_CACTVS_HBOND_ACCEPTOR>
10

> <PUBCHEM_CACTVS_HBOND_DONOR>
2

> <PUBCHEM_CACTVS_ROTATABLE_BOND>
3

> <PUBCHEM_CACTVS_SUBSKEYS>
AAADccB7PDBgAAAAAAAAAAAAAAAAAAAAAAAwYMAAAAAAAADBVAAAHgQYCAAADAyB2AAyx8LAAgKKAiVSUHDCAEAhIgAIiBwFbIgKJiLSkZOEcAhm1BnI2AeQwLAOmAQBxAAeEQAwCAOIADwiAAAAAAAAAA==

> <PUBCHEM_IUPAC_OPENEYE_NAME>
disodium;4-acetamido-5-hydroxy-6-phenylazo-naphthalene-1,7-disulfonate

> <PUBCHEM_IUPAC_CAS_NAME>
disodium;4-acetamido-5-hydroxy-6-phenyldiazenylnaphthalene-1,7-disulfonate

> <PUBCHEM_IUPAC_NAME_MARKUP>
disodium;4-acetamido-5-hydroxy-6-phenyldiazenylnaphthalene-1,7-disulfonate

> <PUBCHEM_IUPAC_NAME>
disodium;4-acetamido-5-hydroxy-6-phenyldiazenylnaphthalene-1,7-disulfonate

> <PUBCHEM_IUPAC_SYSTEMATIC_NAME>
disodium;4-acetamido-5-oxidanyl-6-phenyldiazenyl-naphthalene-1,7-disulfonate

> <PUBCHEM_IUPAC_TRADITIONAL_NAME>
disodium;4-acetamido-5-hydroxy-6-phenylazo-naphthalene-1,7-disulfonate

> <PUBCHEM_IUPAC_INCHI>
InChI=1S/C18H15N3O8S2.2Na/c1-10(22)19-13-7-8-14(30(24,25)26)12-9-15(31(27,28)29)17(18(23)16(12)13)21-20-11-5-3-2-4-6-11;;/h2-9,23H,1H3,(H,19,22)(H,24,25,26)(H,27,28,29);;/q;2*+1/p-2

> <PUBCHEM_IUPAC_INCHIKEY>
RLLNZXVKBYGKIP-UHFFFAOYSA-L

> <PUBCHEM_EXACT_MASS>
508.99394529

> <PUBCHEM_MOLECULAR_FORMULA>
C18H13N3Na2O8S2

> <PUBCHEM_MOLECULAR_WEIGHT>
509.4

> <PUBCHEM_SMILES>
CC(=O)NC1=C2C(=C(C=C1)S(=O)(=O)[O-])C=C(C(=C2O)N=NC3=CC=CC=C3)S(=O)(=O)[O-].[Na+].[Na+]

> <PUBCHEM_CONNECTIVITY_SMILES>
CC(=O)NC1=C2C(=C(C=C1)S(=O)(=O)[O-])C=C(C(=C2O)N=NC3=CC=CC=C3)S(=O)(=O)[O-].[Na+].[Na+]

> <PUBCHEM_CACTVS_TPSA>
205

> <PUBCHEM_MONOISOTOPIC_WEIGHT>
508.99394529

> <PUBCHEM_TOTAL_CHARGE>
0

> <PUBCHEM_HEAVY_ATOM_COUNT>
33

> <PUBCHEM_ATOM_DEF_STEREO_COUNT>
0

> <PUBCHEM_ATOM_UDEF_STEREO_COUNT>
0

> <PUBCHEM_BOND_DEF_STEREO_COUNT>
0

> <PUBCHEM_BOND_UDEF_STEREO_COUNT>
0

> <PUBCHEM_ISOTOPIC_ATOM_COUNT>
0

> <PUBCHEM_COMPONENT_COUNT>
3

> <PUBCHEM_CACTVS_TAUTO_COUNT>
-1

> <PUBCHEM_COORDINATE_TYPE>
1
5
255

> <PUBCHEM_BONDANNOTATIONS>
16  17  8
16  18  8
16  20  8
17  19  8
17  21  8
18  24  8
19  25  8
20  22  8
21  23  8
22  23  8
24  25  8
28  29  8
28  30  8
29  31  8
30  32  8
31  33  8
32  33  8

$$$$
