5590
  -OEChem-07092505142D

 44 44  0     0  0  0  0  0  0999 V2000
    3.7321   -1.8730    0.0000 O   0  0  0  0  0  0  0  0  0  0  0  0
    2.0000   -3.8730    0.0000 O   0  0  0  0  0  0  0  0  0  0  0  0
    3.7321    2.1270    0.0000 C   0  0  0  0  0  0  0  0  0  0  0  0
    4.5981    3.6270    0.0000 C   0  0  0  0  0  0  0  0  0  0  0  0
    3.7321    3.1270    0.0000 C   0  0  0  0  0  0  0  0  0  0  0  0
    3.7321    1.1270    0.0000 C   0  0  0  0  0  0  0  0  0  0  0  0
    4.7321    2.1270    0.0000 C   0  0  0  0  0  0  0  0  0  0  0  0
    2.7321    2.1270    0.0000 C   0  0  0  0  0  0  0  0  0  0  0  0
    5.4641    4.1270    0.0000 C   0  0  0  0  0  0  0  0  0  0  0  0
    4.0981    4.4930    0.0000 C   0  0  0  0  0  0  0  0  0  0  0  0
    5.0981    2.7610    0.0000 C   0  0  0  0  0  0  0  0  0  0  0  0
    2.8660    0.6270    0.0000 C   0  0  0  0  0  0  0  0  0  0  0  0
    4.5981    0.6270    0.0000 C   0  0  0  0  0  0  0  0  0  0  0  0
    2.8660   -0.3730    0.0000 C   0  0  0  0  0  0  0  0  0  0  0  0
    4.5981   -0.3730    0.0000 C   0  0  0  0  0  0  0  0  0  0  0  0
    3.7321   -0.8730    0.0000 C   0  0  0  0  0  0  0  0  0  0  0  0
    2.8660   -2.3730    0.0000 C   0  0  0  0  0  0  0  0  0  0  0  0
    2.8660   -3.3730    0.0000 C   0  0  0  0  0  0  0  0  0  0  0  0
    3.5200    3.7096    0.0000 H   0  0  0  0  0  0  0  0  0  0  0  0
    3.1215    3.0193    0.0000 H   0  0  0  0  0  0  0  0  0  0  0  0
    4.7321    1.5070    0.0000 H   0  0  0  0  0  0  0  0  0  0  0  0
    5.3521    2.1270    0.0000 H   0  0  0  0  0  0  0  0  0  0  0  0
    4.7321    2.7470    0.0000 H   0  0  0  0  0  0  0  0  0  0  0  0
    2.7321    2.7470    0.0000 H   0  0  0  0  0  0  0  0  0  0  0  0
    2.1121    2.1270    0.0000 H   0  0  0  0  0  0  0  0  0  0  0  0
    2.7321    1.5070    0.0000 H   0  0  0  0  0  0  0  0  0  0  0  0
    5.7741    3.5901    0.0000 H   0  0  0  0  0  0  0  0  0  0  0  0
    6.0010    4.4370    0.0000 H   0  0  0  0  0  0  0  0  0  0  0  0
    5.1541    4.6639    0.0000 H   0  0  0  0  0  0  0  0  0  0  0  0
    4.6350    4.8030    0.0000 H   0  0  0  0  0  0  0  0  0  0  0  0
    3.7881    5.0300    0.0000 H   0  0  0  0  0  0  0  0  0  0  0  0
    3.5611    4.1830    0.0000 H   0  0  0  0  0  0  0  0  0  0  0  0
    4.5611    2.4510    0.0000 H   0  0  0  0  0  0  0  0  0  0  0  0
    5.4081    2.2240    0.0000 H   0  0  0  0  0  0  0  0  0  0  0  0
    5.6350    3.0710    0.0000 H   0  0  0  0  0  0  0  0  0  0  0  0
    2.3291    0.9370    0.0000 H   0  0  0  0  0  0  0  0  0  0  0  0
    5.1350    0.9370    0.0000 H   0  0  0  0  0  0  0  0  0  0  0  0
    2.3291   -0.6830    0.0000 H   0  0  0  0  0  0  0  0  0  0  0  0
    5.1350   -0.6830    0.0000 H   0  0  0  0  0  0  0  0  0  0  0  0
    2.6540   -1.7904    0.0000 H   0  0  0  0  0  0  0  0  0  0  0  0
    2.2554   -2.4807    0.0000 H   0  0  0  0  0  0  0  0  0  0  0  0
    3.0781   -3.9556    0.0000 H   0  0  0  0  0  0  0  0  0  0  0  0
    3.4766   -3.2654    0.0000 H   0  0  0  0  0  0  0  0  0  0  0  0
    2.0000   -4.4930    0.0000 H   0  0  0  0  0  0  0  0  0  0  0  0
  1 16  1  0  0  0  0
  1 17  1  0  0  0  0
  2 18  1  0  0  0  0
  2 44  1  0  0  0  0
  3  5  1  0  0  0  0
  3  6  1  0  0  0  0
  3  7  1  0  0  0  0
  3  8  1  0  0  0  0
  4  5  1  0  0  0  0
  4  9  1  0  0  0  0
  4 10  1  0  0  0  0
  4 11  1  0  0  0  0
  5 19  1  0  0  0  0
  5 20  1  0  0  0  0
  6 12  2  0  0  0  0
  6 13  1  0  0  0  0
  7 21  1  0  0  0  0
  7 22  1  0  0  0  0
  7 23  1  0  0  0  0
  8 24  1  0  0  0  0
  8 25  1  0  0  0  0
  8 26  1  0  0  0  0
  9 27  1  0  0  0  0
  9 28  1  0  0  0  0
  9 29  1  0  0  0  0
 10 30  1  0  0  0  0
 10 31  1  0  0  0  0
 10 32  1  0  0  0  0
 11 33  1  0  0  0  0
 11 34  1  0  0  0  0
 11 35  1  0  0  0  0
 12 14  1  0  0  0  0
 12 36  1  0  0  0  0
 13 15  2  0  0  0  0
 13 37  1  0  0  0  0
 14 16  2  0  0  0  0
 14 38  1  0  0  0  0
 15 16  1  0  0  0  0
 15 39  1  0  0  0  0
 17 18  1  0  0  0  0
 17 40  1  0  0  0  0
 17 41  1  0  0  0  0
 18 42  1  0  0  0  0
 18 43  1  0  0  0  0
M  END
> <PUBCHEM_COMPOUND_CID>
5590

> <PUBCHEM_COMPOUND_CANONICALIZED>
1

> <PUBCHEM_CACTVS_COMPLEXITY>
232

> <PUBCHEM_CACTVS_HBOND_ACCEPTOR>
2

> <PUBCHEM_CACTVS_HBOND_DONOR>
1

> <PUBCHEM_CACTVS_ROTATABLE_BOND>
6

> <PUBCHEM_CACTVS_SUBSKEYS>
AAADceB4MAAAAAAAAAAAAAAAAAAAAAAAAAAwAAAAAAAAAAABAAAAGgAACAAADgSgmAIyBoAABgCAAiBCAAACCAAgIAAIiAAGCIgNNiKEMRqCOCCkwBELqAeAwPAPoAAAAAAAAABAAAAAAAAAAAAAAAAAAA==

> <PUBCHEM_IUPAC_OPENEYE_NAME>
2-[4-(1,1,3,3-tetramethylbutyl)phenoxy]ethanol

> <PUBCHEM_IUPAC_CAS_NAME>
2-[4-(2,4,4-trimethylpentan-2-yl)phenoxy]ethanol

> <PUBCHEM_IUPAC_NAME_MARKUP>
2-[4-(2,4,4-trimethylpentan-2-yl)phenoxy]ethanol

> <PUBCHEM_IUPAC_NAME>
2-[4-(2,4,4-trimethylpentan-2-yl)phenoxy]ethanol

> <PUBCHEM_IUPAC_SYSTEMATIC_NAME>
2-[4-(2,4,4-trimethylpentan-2-yl)phenoxy]ethanol

> <PUBCHEM_IUPAC_TRADITIONAL_NAME>
2-[4-(1,1,3,3-tetramethylbutyl)phenoxy]ethanol

> <PUBCHEM_IUPAC_INCHI>
InChI=1S/C16H26O2/c1-15(2,3)12-16(4,5)13-6-8-14(9-7-13)18-11-10-17/h6-9,17H,10-12H2,1-5H3

> <PUBCHEM_IUPAC_INCHIKEY>
JYCQQPHGFMYQCF-UHFFFAOYSA-N

> <PUBCHEM_XLOGP3_AA>
4.6

> <PUBCHEM_EXACT_MASS>
250.193280068

> <PUBCHEM_MOLECULAR_FORMULA>
C16H26O2

> <PUBCHEM_MOLECULAR_WEIGHT>
250.38

> <PUBCHEM_SMILES>
CC(C)(C)CC(C)(C)C1=CC=C(C=C1)OCCO

> <PUBCHEM_CONNECTIVITY_SMILES>
CC(C)(C)CC(C)(C)C1=CC=C(C=C1)OCCO

> <PUBCHEM_CACTVS_TPSA>
29.5

> <PUBCHEM_MONOISOTOPIC_WEIGHT>
250.193280068

> <PUBCHEM_TOTAL_CHARGE>
0

> <PUBCHEM_HEAVY_ATOM_COUNT>
18

> <PUBCHEM_ATOM_DEF_STEREO_COUNT>
0

> <PUBCHEM_ATOM_UDEF_STEREO_COUNT>
0

> <PUBCHEM_BOND_DEF_STEREO_COUNT>
0

> <PUBCHEM_BOND_UDEF_STEREO_COUNT>
0

> <PUBCHEM_ISOTOPIC_ATOM_COUNT>
0

> <PUBCHEM_COMPONENT_COUNT>
1

> <PUBCHEM_CACTVS_TAUTO_COUNT>
-1

> <PUBCHEM_COORDINATE_TYPE>
1
5
255

> <PUBCHEM_BONDANNOTATIONS>
12  14  8
13  15  8
14  16  8
15  16  8
6  12  8
6  13  8

$$$$
