447043
  -OEChem-07092505172D

124126  0     1  0  0  0  0  0999 V2000
    7.5612   -1.6208    0.0000 O   0  0  0  0  0  0  0  0  0  0  0  0
    5.9331    0.6200    0.0000 O   0  0  0  0  0  0  0  0  0  0  0  0
    8.6539   -1.9974    0.0000 O   0  0  0  0  0  0  0  0  0  0  0  0
    5.8291   -1.6208    0.0000 O   0  0  0  0  0  0  0  0  0  0  0  0
    4.7742    1.9071    0.0000 O   0  0  0  0  0  0  0  0  0  0  0  0
    8.0612    3.4106    0.0000 O   0  0  0  0  0  0  0  0  0  0  0  0
    2.3097    0.3610    0.0000 O   0  0  0  0  0  0  0  0  0  0  0  0
    7.5612   -3.6208    0.0000 O   0  0  0  0  0  0  0  0  0  0  0  0
    2.1289    1.8560    0.0000 O   0  0  0  0  0  0  0  0  0  0  0  0
   10.0591    4.6137    0.0000 O   0  0  0  0  0  0  0  0  0  0  0  0
   11.5419    3.8582    0.0000 O   0  0  0  0  0  0  0  0  0  0  0  0
    6.5090    3.3292    0.0000 O   0  0  0  0  0  0  0  0  0  0  0  0
   11.6685    1.3279    0.0000 N   0  0  3  0  0  0  0  0  0  0  0  0
    5.8291   -4.6208    0.0000 N   0  0  0  0  0  0  0  0  0  0  0  0
    8.0612   -0.7548    0.0000 C   0  0  2  0  0  0  0  0  0  0  0  0
    7.3180   -0.0857    0.0000 C   0  0  2  0  0  0  0  0  0  0  0  0
    9.0122   -1.0638    0.0000 C   0  0  1  0  0  0  0  0  0  0  0  0
    6.9113    0.8279    0.0000 C   0  0  1  0  0  0  0  0  0  0  0  0
   10.0067   -0.9593    0.0000 C   0  0  0  0  0  0  0  0  0  0  0  0
   10.8728   -0.4593    0.0000 C   0  0  2  0  0  0  0  0  0  0  0  0
    6.9113    1.8279    0.0000 C   0  0  2  0  0  0  0  0  0  0  0  0
    6.6951   -2.1208    0.0000 C   0  0  2  0  0  0  0  0  0  0  0  0
    6.5090   -0.6735    0.0000 C   0  0  0  0  0  0  0  0  0  0  0  0
    4.9821    0.9290    0.0000 C   0  0  2  0  0  0  0  0  0  0  0  0
    9.6415   -1.8410    0.0000 C   0  0  0  0  0  0  0  0  0  0  0  0
    3.2879    0.5689    0.0000 C   0  0  2  0  0  0  0  0  0  0  0  0
    6.6951   -3.1208    0.0000 C   0  0  1  0  0  0  0  0  0  0  0  0
   11.4605    0.3497    0.0000 C   0  0  0  0  0  0  0  0  0  0  0  0
    5.8291   -3.6208    0.0000 C   0  0  2  0  0  0  0  0  0  0  0  0
    4.2389    0.2599    0.0000 C   0  0  0  0  0  0  0  0  0  0  0  0
    3.0800    1.5470    0.0000 C   0  0  2  0  0  0  0  0  0  0  0  0
   11.4605    2.3060    0.0000 C   0  0  1  0  0  0  0  0  0  0  0  0
   10.0067    3.6150    0.0000 C   0  0  1  0  0  0  0  0  0  0  0  0
    4.9631   -3.1208    0.0000 C   0  0  0  0  0  0  0  0  0  0  0  0
   10.8728    3.1150    0.0000 C   0  0  2  0  0  0  0  0  0  0  0  0
    3.8231    2.2161    0.0000 C   0  0  2  0  0  0  0  0  0  0  0  0
    4.9631   -2.1208    0.0000 C   0  0  1  0  0  0  0  0  0  0  0  0
    9.0122    3.7196    0.0000 C   0  0  1  0  0  0  0  0  0  0  0  0
   11.5419   -1.2024    0.0000 C   0  0  0  0  0  0  0  0  0  0  0  0
    7.3180    2.7414    0.0000 C   0  0  0  0  0  0  0  0  0  0  0  0
    5.9331    2.0358    0.0000 C   0  0  0  0  0  0  0  0  0  0  0  0
    2.9789   -0.3822    0.0000 C   0  0  0  0  0  0  0  0  0  0  0  0
   12.3741    2.7128    0.0000 C   0  0  0  0  0  0  0  0  0  0  0  0
   10.8054    4.2169    0.0000 C   0  0  0  0  0  0  0  0  0  0  0  0
    8.9077    4.7141    0.0000 C   0  0  0  0  0  0  0  0  0  0  0  0
   12.6685    1.3279    0.0000 C   0  0  0  0  0  0  0  0  0  0  0  0
    3.6152    3.1943    0.0000 C   0  0  0  0  0  0  0  0  0  0  0  0
    4.0971   -1.6208    0.0000 C   0  0  0  0  0  0  0  0  0  0  0  0
    4.9631   -5.1208    0.0000 C   0  0  0  0  0  0  0  0  0  0  0  0
    6.6951   -5.1208    0.0000 C   0  0  0  0  0  0  0  0  0  0  0  0
    7.9941    5.1208    0.0000 C   0  0  0  0  0  0  0  0  0  0  0  0
    2.0007   -0.5900    0.0000 C   0  0  0  0  0  0  0  0  0  0  0  0
    7.4488   -0.8518    0.0000 H   0  0  0  0  0  0  0  0  0  0  0  0
    6.7191    0.0748    0.0000 H   0  0  0  0  0  0  0  0  0  0  0  0
    6.4295    1.2181    0.0000 H   0  0  0  0  0  0  0  0  0  0  0  0
    9.8358   -1.5553    0.0000 H   0  0  0  0  0  0  0  0  0  0  0  0
    9.8152   -0.3696    0.0000 H   0  0  0  0  0  0  0  0  0  0  0  0
   11.4919   -0.4268    0.0000 H   0  0  0  0  0  0  0  0  0  0  0  0
    6.6298    2.3803    0.0000 H   0  0  0  0  0  0  0  0  0  0  0  0
    6.6951   -1.5008    0.0000 H   0  0  0  0  0  0  0  0  0  0  0  0
    6.1446   -0.1719    0.0000 H   0  0  0  0  0  0  0  0  0  0  0  0
    6.0074   -1.0379    0.0000 H   0  0  0  0  0  0  0  0  0  0  0  0
    6.8734   -1.1751    0.0000 H   0  0  0  0  0  0  0  0  0  0  0  0
    5.1110    0.3225    0.0000 H   0  0  0  0  0  0  0  0  0  0  0  0
    9.1597   -2.2311    0.0000 H   0  0  0  0  0  0  0  0  0  0  0  0
   10.0317   -2.3228    0.0000 H   0  0  0  0  0  0  0  0  0  0  0  0
   10.1234   -1.4508    0.0000 H   0  0  0  0  0  0  0  0  0  0  0  0
    6.6951   -3.7408    0.0000 H   0  0  0  0  0  0  0  0  0  0  0  0
   11.7891   -0.1761    0.0000 H   0  0  0  0  0  0  0  0  0  0  0  0
   10.8942    0.6019    0.0000 H   0  0  0  0  0  0  0  0  0  0  0  0
    5.2922   -3.9308    0.0000 H   0  0  0  0  0  0  0  0  0  0  0  0
    3.9479   -0.2876    0.0000 H   0  0  0  0  0  0  0  0  0  0  0  0
    4.7275   -0.1219    0.0000 H   0  0  0  0  0  0  0  0  0  0  0  0
    2.6192    1.1322    0.0000 H   0  0  0  0  0  0  0  0  0  0  0  0
   12.0130    2.0246    0.0000 H   0  0  0  0  0  0  0  0  0  0  0  0
    4.3525   -3.0132    0.0000 H   0  0  0  0  0  0  0  0  0  0  0  0
    4.7510   -3.7034    0.0000 H   0  0  0  0  0  0  0  0  0  0  0  0
   11.4919    3.0826    0.0000 H   0  0  0  0  0  0  0  0  0  0  0  0
    4.2839    2.6310    0.0000 H   0  0  0  0  0  0  0  0  0  0  0  0
    4.9631   -1.5008    0.0000 H   0  0  0  0  0  0  0  0  0  0  0  0
    8.4922    4.0572    0.0000 H   0  0  0  0  0  0  0  0  0  0  0  0
    8.0415   -2.0944    0.0000 H   0  0  0  0  0  0  0  0  0  0  0  0
   11.0811   -1.6173    0.0000 H   0  0  0  0  0  0  0  0  0  0  0  0
   11.9568   -1.6632    0.0000 H   0  0  0  0  0  0  0  0  0  0  0  0
   12.0026   -0.7876    0.0000 H   0  0  0  0  0  0  0  0  0  0  0  0
    6.0620    2.6422    0.0000 H   0  0  0  0  0  0  0  0  0  0  0  0
    5.3267    2.1647    0.0000 H   0  0  0  0  0  0  0  0  0  0  0  0
    5.8042    1.4293    0.0000 H   0  0  0  0  0  0  0  0  0  0  0  0
    2.3892   -0.1906    0.0000 H   0  0  0  0  0  0  0  0  0  0  0  0
    2.7873   -0.9718    0.0000 H   0  0  0  0  0  0  0  0  0  0  0  0
    3.5685   -0.5738    0.0000 H   0  0  0  0  0  0  0  0  0  0  0  0
   12.6263    2.1464    0.0000 H   0  0  0  0  0  0  0  0  0  0  0  0
   12.9405    2.9649    0.0000 H   0  0  0  0  0  0  0  0  0  0  0  0
   12.1219    3.2792    0.0000 H   0  0  0  0  0  0  0  0  0  0  0  0
   11.1785    3.7217    0.0000 H   0  0  0  0  0  0  0  0  0  0  0  0
   11.3005    4.5900    0.0000 H   0  0  0  0  0  0  0  0  0  0  0  0
   10.4322    4.7120    0.0000 H   0  0  0  0  0  0  0  0  0  0  0  0
    9.5262    4.6708    0.0000 H   0  0  0  0  0  0  0  0  0  0  0  0
    9.0577    5.3157    0.0000 H   0  0  0  0  0  0  0  0  0  0  0  0
   12.6685    0.7079    0.0000 H   0  0  0  0  0  0  0  0  0  0  0  0
   13.2885    1.3279    0.0000 H   0  0  0  0  0  0  0  0  0  0  0  0
   12.6685    1.9479    0.0000 H   0  0  0  0  0  0  0  0  0  0  0  0
    4.2217    3.3232    0.0000 H   0  0  0  0  0  0  0  0  0  0  0  0
    3.4863    3.8007    0.0000 H   0  0  0  0  0  0  0  0  0  0  0  0
    3.0087    3.0654    0.0000 H   0  0  0  0  0  0  0  0  0  0  0  0
    4.4071   -1.0839    0.0000 H   0  0  0  0  0  0  0  0  0  0  0  0
    3.5601   -1.3108    0.0000 H   0  0  0  0  0  0  0  0  0  0  0  0
    3.7871   -2.1578    0.0000 H   0  0  0  0  0  0  0  0  0  0  0  0
    8.0981   -3.3108    0.0000 H   0  0  0  0  0  0  0  0  0  0  0  0
    2.0000    2.4625    0.0000 H   0  0  0  0  0  0  0  0  0  0  0  0
    9.5391    4.9514    0.0000 H   0  0  0  0  0  0  0  0  0  0  0  0
   12.1483    3.7293    0.0000 H   0  0  0  0  0  0  0  0  0  0  0  0
    4.6531   -4.5839    0.0000 H   0  0  0  0  0  0  0  0  0  0  0  0
    4.4262   -5.4308    0.0000 H   0  0  0  0  0  0  0  0  0  0  0  0
    5.2731   -5.6578    0.0000 H   0  0  0  0  0  0  0  0  0  0  0  0
    6.3851   -5.6578    0.0000 H   0  0  0  0  0  0  0  0  0  0  0  0
    7.2321   -5.4308    0.0000 H   0  0  0  0  0  0  0  0  0  0  0  0
    7.0051   -4.5839    0.0000 H   0  0  0  0  0  0  0  0  0  0  0  0
    8.2463    5.6872    0.0000 H   0  0  0  0  0  0  0  0  0  0  0  0
    7.4277    5.3730    0.0000 H   0  0  0  0  0  0  0  0  0  0  0  0
    7.7420    4.5544    0.0000 H   0  0  0  0  0  0  0  0  0  0  0  0
    1.4111   -0.3984    0.0000 H   0  0  0  0  0  0  0  0  0  0  0  0
    1.8091   -1.1797    0.0000 H   0  0  0  0  0  0  0  0  0  0  0  0
    2.5904   -0.7816    0.0000 H   0  0  0  0  0  0  0  0  0  0  0  0
 15  1  1  6  0  0  0
 22  1  1  1  0  0  0
 18  2  1  6  0  0  0
 24  2  1  1  0  0  0
 17  3  1  1  0  0  0
  3 82  1  0  0  0  0
  4 22  1  0  0  0  0
  4 37  1  0  0  0  0
  5 24  1  0  0  0  0
  5 36  1  0  0  0  0
  6 38  1  0  0  0  0
  6 40  1  0  0  0  0
 26  7  1  1  0  0  0
  7 52  1  0  0  0  0
 27  8  1  6  0  0  0
  8109  1  0  0  0  0
 31  9  1  1  0  0  0
  9110  1  0  0  0  0
 33 10  1  1  0  0  0
 10111  1  0  0  0  0
 35 11  1  6  0  0  0
 11112  1  0  0  0  0
 12 40  2  0  0  0  0
 13 28  1  0  0  0  0
 13 32  1  0  0  0  0
 13 46  1  0  0  0  0
 29 14  1  1  0  0  0
 14 49  1  0  0  0  0
 14 50  1  0  0  0  0
 15 16  1  0  0  0  0
 15 17  1  0  0  0  0
 15 53  1  0  0  0  0
 16 18  1  0  0  0  0
 16 23  1  1  0  0  0
 16 54  1  0  0  0  0
 17 19  1  0  0  0  0
 17 25  1  0  0  0  0
 18 21  1  0  0  0  0
 18 55  1  0  0  0  0
 19 20  1  0  0  0  0
 19 56  1  0  0  0  0
 19 57  1  0  0  0  0
 20 28  1  0  0  0  0
 20 39  1  6  0  0  0
 20 58  1  0  0  0  0
 21 40  1  0  0  0  0
 21 41  1  1  0  0  0
 21 59  1  0  0  0  0
 22 27  1  0  0  0  0
 22 60  1  0  0  0  0
 23 61  1  0  0  0  0
 23 62  1  0  0  0  0
 23 63  1  0  0  0  0
 24 30  1  0  0  0  0
 24 64  1  0  0  0  0
 25 65  1  0  0  0  0
 25 66  1  0  0  0  0
 25 67  1  0  0  0  0
 26 30  1  0  0  0  0
 26 31  1  0  0  0  0
 26 42  1  0  0  0  0
 27 29  1  0  0  0  0
 27 68  1  0  0  0  0
 28 69  1  0  0  0  0
 28 70  1  0  0  0  0
 29 34  1  0  0  0  0
 29 71  1  0  0  0  0
 30 72  1  0  0  0  0
 30 73  1  0  0  0  0
 31 36  1  0  0  0  0
 31 74  1  0  0  0  0
 32 35  1  0  0  0  0
 32 43  1  1  0  0  0
 32 75  1  0  0  0  0
 33 35  1  0  0  0  0
 33 38  1  0  0  0  0
 33 44  1  0  0  0  0
 34 37  1  0  0  0  0
 34 76  1  0  0  0  0
 34 77  1  0  0  0  0
 35 78  1  0  0  0  0
 36 47  1  6  0  0  0
 36 79  1  0  0  0  0
 37 48  1  1  0  0  0
 37 80  1  0  0  0  0
 38 45  1  6  0  0  0
 38 81  1  0  0  0  0
 39 83  1  0  0  0  0
 39 84  1  0  0  0  0
 39 85  1  0  0  0  0
 41 86  1  0  0  0  0
 41 87  1  0  0  0  0
 41 88  1  0  0  0  0
 42 89  1  0  0  0  0
 42 90  1  0  0  0  0
 42 91  1  0  0  0  0
 43 92  1  0  0  0  0
 43 93  1  0  0  0  0
 43 94  1  0  0  0  0
 44 95  1  0  0  0  0
 44 96  1  0  0  0  0
 44 97  1  0  0  0  0
 45 51  1  0  0  0  0
 45 98  1  0  0  0  0
 45 99  1  0  0  0  0
 46100  1  0  0  0  0
 46101  1  0  0  0  0
 46102  1  0  0  0  0
 47103  1  0  0  0  0
 47104  1  0  0  0  0
 47105  1  0  0  0  0
 48106  1  0  0  0  0
 48107  1  0  0  0  0
 48108  1  0  0  0  0
 49113  1  0  0  0  0
 49114  1  0  0  0  0
 49115  1  0  0  0  0
 50116  1  0  0  0  0
 50117  1  0  0  0  0
 50118  1  0  0  0  0
 51119  1  0  0  0  0
 51120  1  0  0  0  0
 51121  1  0  0  0  0
 52122  1  0  0  0  0
 52123  1  0  0  0  0
 52124  1  0  0  0  0
M  END
> <PUBCHEM_COMPOUND_CID>
447043

> <PUBCHEM_COMPOUND_CANONICALIZED>
1

> <PUBCHEM_CACTVS_COMPLEXITY>
1150

> <PUBCHEM_CACTVS_HBOND_ACCEPTOR>
14

> <PUBCHEM_CACTVS_HBOND_DONOR>
5

> <PUBCHEM_CACTVS_ROTATABLE_BOND>
7

> <PUBCHEM_CACTVS_SUBSKEYS>
AAADcfB/PAAAAAAAAAAAAAAAAAAAAAAAAAAkSAAAAAAAAAAAAAAAHgAACAAADXzxgAcCCAMABgAIAACQCAAAAAAAAAAAAAEIAAATEBYAgAAmQAAHIACXAAH4/P7OAAAAAAAAAAAAAAAAAAAAAAAAAAAAAA==

> <PUBCHEM_IUPAC_OPENEYE_NAME>
(2R,3S,4R,5R,8R,10R,11R,12S,13S,14R)-11-[(2S,3R,4S,6R)-4-(dimethylamino)-3-hydroxy-6-methyl-tetrahydropyran-2-yl]oxy-2-ethyl-3,4,10-trihydroxy-13-[(2R,4R,5S,6S)-5-hydroxy-4-methoxy-4,6-dimethyl-tetrahydropyran-2-yl]oxy-3,5,6,8,10,12,14-heptamethyl-1-oxa-6-azacyclopentadecan-15-one

> <PUBCHEM_IUPAC_CAS_NAME>
(2R,3S,4R,5R,8R,10R,11R,12S,13S,14R)-11-[[(2S,3R,4S,6R)-4-(dimethylamino)-3-hydroxy-6-methyl-2-oxanyl]oxy]-2-ethyl-3,4,10-trihydroxy-13-[[(2R,4R,5S,6S)-5-hydroxy-4-methoxy-4,6-dimethyl-2-oxanyl]oxy]-3,5,6,8,10,12,14-heptamethyl-1-oxa-6-azacyclopentadecan-15-one

> <PUBCHEM_IUPAC_NAME_MARKUP>
(2<I>R</I>,3<I>S</I>,4<I>R</I>,5<I>R</I>,8<I>R</I>,10<I>R</I>,11<I>R</I>,12<I>S</I>,13<I>S</I>,14<I>R</I>)-11-[(2<I>S</I>,3<I>R</I>,4<I>S</I>,6<I>R</I>)-4-(dimethylamino)-3-hydroxy-6-methyloxan-2-yl]oxy-2-ethyl-3,4,10-trihydroxy-13-[(2<I>R</I>,4<I>R</I>,5<I>S</I>,6<I>S</I>)-5-hydroxy-4-methoxy-4,6-dimethyloxan-2-yl]oxy-3,5,6,8,10,12,14-heptamethyl-1-oxa-6-azacyclopentadecan-15-one

> <PUBCHEM_IUPAC_NAME>
(2R,3S,4R,5R,8R,10R,11R,12S,13S,14R)-11-[(2S,3R,4S,6R)-4-(dimethylamino)-3-hydroxy-6-methyloxan-2-yl]oxy-2-ethyl-3,4,10-trihydroxy-13-[(2R,4R,5S,6S)-5-hydroxy-4-methoxy-4,6-dimethyloxan-2-yl]oxy-3,5,6,8,10,12,14-heptamethyl-1-oxa-6-azacyclopentadecan-15-one

> <PUBCHEM_IUPAC_SYSTEMATIC_NAME>
(2R,3S,4R,5R,8R,10R,11R,12S,13S,14R)-11-[(2S,3R,4S,6R)-4-(dimethylamino)-6-methyl-3-oxidanyl-oxan-2-yl]oxy-2-ethyl-13-[(2R,4R,5S,6S)-4-methoxy-4,6-dimethyl-5-oxidanyl-oxan-2-yl]oxy-3,5,6,8,10,12,14-heptamethyl-3,4,10-tris(oxidanyl)-1-oxa-6-azacyclopentadecan-15-one

> <PUBCHEM_IUPAC_TRADITIONAL_NAME>
(2R,3S,4R,5R,8R,10R,11R,12S,13S,14R)-11-[(2S,3R,4S,6R)-4-(dimethylamino)-3-hydroxy-6-methyl-tetrahydropyran-2-yl]oxy-2-ethyl-3,4,10-trihydroxy-13-[(2R,4R,5S,6S)-5-hydroxy-4-methoxy-4,6-dimethyl-tetrahydropyran-2-yl]oxy-3,5,6,8,10,12,14-heptamethyl-1-oxa-6-azacyclopentadecan-15-one

> <PUBCHEM_IUPAC_INCHI>
InChI=1S/C38H72N2O12/c1-15-27-38(10,46)31(42)24(6)40(13)19-20(2)17-36(8,45)33(52-35-29(41)26(39(11)12)16-21(3)48-35)22(4)30(23(5)34(44)50-27)51-28-18-37(9,47-14)32(43)25(7)49-28/h20-33,35,41-43,45-46H,15-19H2,1-14H3/t20-,21-,22+,23-,24-,25+,26+,27-,28+,29-,30+,31-,32+,33-,35+,36-,37-,38-/m1/s1

> <PUBCHEM_IUPAC_INCHIKEY>
MQTOSJVFKKJCRP-BICOPXKESA-N

> <PUBCHEM_XLOGP3>
4

> <PUBCHEM_EXACT_MASS>
748.50852574

> <PUBCHEM_MOLECULAR_FORMULA>
C38H72N2O12

> <PUBCHEM_MOLECULAR_WEIGHT>
749.0

> <PUBCHEM_SMILES>
CC[C@@H]1[C@@]([C@@H]([C@H](N(C[C@@H](C[C@@]([C@@H]([C@H]([C@@H]([C@H](C(=O)O1)C)O[C@H]2C[C@@]([C@H]([C@@H](O2)C)O)(C)OC)C)O[C@H]3[C@@H]([C@H](C[C@H](O3)C)N(C)C)O)(C)O)C)C)C)O)(C)O

> <PUBCHEM_CONNECTIVITY_SMILES>
CCC1C(C(C(N(CC(CC(C(C(C(C(C(=O)O1)C)OC2CC(C(C(O2)C)O)(C)OC)C)OC3C(C(CC(O3)C)N(C)C)O)(C)O)C)C)C)O)(C)O

> <PUBCHEM_CACTVS_TPSA>
180

> <PUBCHEM_MONOISOTOPIC_WEIGHT>
748.50852574

> <PUBCHEM_TOTAL_CHARGE>
0

> <PUBCHEM_HEAVY_ATOM_COUNT>
52

> <PUBCHEM_ATOM_DEF_STEREO_COUNT>
18

> <PUBCHEM_ATOM_UDEF_STEREO_COUNT>
0

> <PUBCHEM_BOND_DEF_STEREO_COUNT>
0

> <PUBCHEM_BOND_UDEF_STEREO_COUNT>
0

> <PUBCHEM_ISOTOPIC_ATOM_COUNT>
0

> <PUBCHEM_COMPONENT_COUNT>
1

> <PUBCHEM_CACTVS_TAUTO_COUNT>
-1

> <PUBCHEM_COORDINATE_TYPE>
1
5
255

> <PUBCHEM_BONDANNOTATIONS>
15  1  6
22  1  5
33  10  5
35  11  6
29  14  5
16  23  5
18  2  6
24  2  5
20  39  6
21  41  5
17  3  5
32  43  5
36  47  6
37  48  5
38  45  6
26  7  5
27  8  6
31  9  5

$$$$
