3001055
  -OEChem-07092505192D

 43 43  0     0  0  0  0  0  0999 V2000
    8.0337   -0.7098    0.0000 S   0  0  0  0  0  0  0  0  0  0  0  0
   10.5369   -1.6577    0.0000 O   0  0  0  0  0  0  0  0  0  0  0  0
    2.0000    0.0615    0.0000 O   0  5  0  0  0  0  0  0  0  0  0  0
    3.1590    1.3487    0.0000 O   0  0  0  0  0  0  0  0  0  0  0  0
   13.0401   -0.7098    0.0000 N   0  0  0  0  0  0  0  0  0  0  0  0
    5.3884   -0.6587    0.0000 N   0  0  0  0  0  0  0  0  0  0  0  0
    4.8532    0.9886    0.0000 N   0  0  0  0  0  0  0  0  0  0  0  0
    2.9511    0.3705    0.0000 N   0  3  0  0  0  0  0  0  0  0  0  0
   12.2970   -1.3789    0.0000 C   0  0  0  0  0  0  0  0  0  0  0  0
   11.3459   -1.0699    0.0000 C   0  0  0  0  0  0  0  0  0  0  0  0
    9.7279   -1.0699    0.0000 C   0  0  0  0  0  0  0  0  0  0  0  0
    8.7768   -1.3789    0.0000 C   0  0  0  0  0  0  0  0  0  0  0  0
   11.0369   -0.1189    0.0000 C   0  0  0  0  0  0  0  0  0  0  0  0
   10.0369   -0.1189    0.0000 C   0  0  0  0  0  0  0  0  0  0  0  0
    7.0826   -1.0188    0.0000 C   0  0  0  0  0  0  0  0  0  0  0  0
    6.3395   -0.3497    0.0000 C   0  0  0  0  0  0  0  0  0  0  0  0
   13.9912   -1.0188    0.0000 C   0  0  0  0  0  0  0  0  0  0  0  0
   12.8322    0.2683    0.0000 C   0  0  0  0  0  0  0  0  0  0  0  0
    4.6453    0.0104    0.0000 C   0  0  0  0  0  0  0  0  0  0  0  0
    3.6942   -0.2986    0.0000 C   0  0  0  0  0  0  0  0  0  0  0  0
    4.1100    1.6577    0.0000 C   0  0  0  0  0  0  0  0  0  0  0  0
   12.0059   -1.9264    0.0000 H   0  0  0  0  0  0  0  0  0  0  0  0
   12.7855   -1.7606    0.0000 H   0  0  0  0  0  0  0  0  0  0  0  0
    8.2882   -1.7606    0.0000 H   0  0  0  0  0  0  0  0  0  0  0  0
    9.0679   -1.9264    0.0000 H   0  0  0  0  0  0  0  0  0  0  0  0
   11.4013    0.3827    0.0000 H   0  0  0  0  0  0  0  0  0  0  0  0
    6.5940   -1.4005    0.0000 H   0  0  0  0  0  0  0  0  0  0  0  0
    7.3737   -1.5663    0.0000 H   0  0  0  0  0  0  0  0  0  0  0  0
    9.6725    0.3827    0.0000 H   0  0  0  0  0  0  0  0  0  0  0  0
    6.8280    0.0320    0.0000 H   0  0  0  0  0  0  0  0  0  0  0  0
    6.0484    0.1977    0.0000 H   0  0  0  0  0  0  0  0  0  0  0  0
   13.7996   -1.6085    0.0000 H   0  0  0  0  0  0  0  0  0  0  0  0
   14.5808   -1.2104    0.0000 H   0  0  0  0  0  0  0  0  0  0  0  0
   14.1827   -0.4292    0.0000 H   0  0  0  0  0  0  0  0  0  0  0  0
   13.4386    0.3972    0.0000 H   0  0  0  0  0  0  0  0  0  0  0  0
   12.7033    0.8748    0.0000 H   0  0  0  0  0  0  0  0  0  0  0  0
   12.2257    0.1394    0.0000 H   0  0  0  0  0  0  0  0  0  0  0  0
    5.2595   -1.2652    0.0000 H   0  0  0  0  0  0  0  0  0  0  0  0
    5.4428    1.1802    0.0000 H   0  0  0  0  0  0  0  0  0  0  0  0
    3.5653   -0.9050    0.0000 H   0  0  0  0  0  0  0  0  0  0  0  0
    4.5249    2.1185    0.0000 H   0  0  0  0  0  0  0  0  0  0  0  0
    3.6493    2.0726    0.0000 H   0  0  0  0  0  0  0  0  0  0  0  0
    3.6952    1.1970    0.0000 H   0  0  0  0  0  0  0  0  0  0  0  0
  1 12  1  0  0  0  0
  1 15  1  0  0  0  0
  2 10  1  0  0  0  0
  2 11  1  0  0  0  0
  3  8  1  0  0  0  0
  4  8  2  0  0  0  0
  5  9  1  0  0  0  0
  5 17  1  0  0  0  0
  5 18  1  0  0  0  0
  6 16  1  0  0  0  0
  6 19  1  0  0  0  0
  6 38  1  0  0  0  0
  7 19  1  0  0  0  0
  7 21  1  0  0  0  0
  7 39  1  0  0  0  0
  8 20  1  0  0  0  0
  9 10  1  0  0  0  0
  9 22  1  0  0  0  0
  9 23  1  0  0  0  0
 10 13  2  0  0  0  0
 11 12  1  0  0  0  0
 11 14  2  0  0  0  0
 12 24  1  0  0  0  0
 12 25  1  0  0  0  0
 13 14  1  0  0  0  0
 13 26  1  0  0  0  0
 14 29  1  0  0  0  0
 15 16  1  0  0  0  0
 15 27  1  0  0  0  0
 15 28  1  0  0  0  0
 16 30  1  0  0  0  0
 16 31  1  0  0  0  0
 17 32  1  0  0  0  0
 17 33  1  0  0  0  0
 17 34  1  0  0  0  0
 18 35  1  0  0  0  0
 18 36  1  0  0  0  0
 18 37  1  0  0  0  0
 19 20  2  0  0  0  0
 20 40  1  0  0  0  0
 21 41  1  0  0  0  0
 21 42  1  0  0  0  0
 21 43  1  0  0  0  0
M  CHG  2   3  -1   8   1
M  END
> <PUBCHEM_COMPOUND_CID>
3001055

> <PUBCHEM_COMPOUND_CANONICALIZED>
1

> <PUBCHEM_CACTVS_COMPLEXITY>
347

> <PUBCHEM_CACTVS_HBOND_ACCEPTOR>
7

> <PUBCHEM_CACTVS_HBOND_DONOR>
2

> <PUBCHEM_CACTVS_ROTATABLE_BOND>
9

> <PUBCHEM_CACTVS_SUBSKEYS>
AAADceBzsABAAAAAAAAAAAAAAAAAASAAAAAAAAAAAAAAAAABgAAAHgQUAAAACATF0ASzBIPQREiJAKBWQwCCCAAkIhAIiIGODMiOJjKktTuHGSjs0BM4qYeYEQIAAAAAAAAAAAAAAAAAAAAAAAAAAAAAAA==

> <PUBCHEM_IUPAC_OPENEYE_NAME>
(E)-N1'-[2-[[5-[(dimethylamino)methyl]-2-furyl]methylsulfanyl]ethyl]-N1-methyl-2-nitro-ethene-1,1-diamine

> <PUBCHEM_IUPAC_CAS_NAME>
(E)-N1'-[2-[[5-[(dimethylamino)methyl]-2-furanyl]methylthio]ethyl]-N1-methyl-2-nitroethene-1,1-diamine

> <PUBCHEM_IUPAC_NAME_MARKUP>
(<I>E</I>)-1-<I>N</I>&apos;-[2-[[5-[(dimethylamino)methyl]furan-2-yl]methylsulfanyl]ethyl]-1-<I>N</I>-methyl-2-nitroethene-1,1-diamine

> <PUBCHEM_IUPAC_NAME>
(E)-1-N'-[2-[[5-[(dimethylamino)methyl]furan-2-yl]methylsulfanyl]ethyl]-1-N-methyl-2-nitroethene-1,1-diamine

> <PUBCHEM_IUPAC_SYSTEMATIC_NAME>
(E)-N1'-[2-[[5-[(dimethylamino)methyl]furan-2-yl]methylsulfanyl]ethyl]-N1-methyl-2-nitro-ethene-1,1-diamine

> <PUBCHEM_IUPAC_TRADITIONAL_NAME>
dimethyl-[[5-[[2-[[(E)-1-(methylamino)-2-nitro-vinyl]amino]ethylthio]methyl]-2-furyl]methyl]amine

> <PUBCHEM_IUPAC_INCHI>
InChI=1S/C13H22N4O3S/c1-14-13(9-17(18)19)15-6-7-21-10-12-5-4-11(20-12)8-16(2)3/h4-5,9,14-15H,6-8,10H2,1-3H3/b13-9+

> <PUBCHEM_IUPAC_INCHIKEY>
VMXUWOKSQNHOCA-UKTHLTGXSA-N

> <PUBCHEM_XLOGP3>
0.3

> <PUBCHEM_EXACT_MASS>
314.14126175

> <PUBCHEM_MOLECULAR_FORMULA>
C13H22N4O3S

> <PUBCHEM_MOLECULAR_WEIGHT>
314.41

> <PUBCHEM_SMILES>
CN/C(=C\[N+](=O)[O-])/NCCSCC1=CC=C(O1)CN(C)C

> <PUBCHEM_CONNECTIVITY_SMILES>
CNC(=C[N+](=O)[O-])NCCSCC1=CC=C(O1)CN(C)C

> <PUBCHEM_CACTVS_TPSA>
112

> <PUBCHEM_MONOISOTOPIC_WEIGHT>
314.14126175

> <PUBCHEM_TOTAL_CHARGE>
0

> <PUBCHEM_HEAVY_ATOM_COUNT>
21

> <PUBCHEM_ATOM_DEF_STEREO_COUNT>
0

> <PUBCHEM_ATOM_UDEF_STEREO_COUNT>
0

> <PUBCHEM_BOND_DEF_STEREO_COUNT>
1

> <PUBCHEM_BOND_UDEF_STEREO_COUNT>
0

> <PUBCHEM_ISOTOPIC_ATOM_COUNT>
0

> <PUBCHEM_COMPONENT_COUNT>
1

> <PUBCHEM_CACTVS_TAUTO_COUNT>
-1

> <PUBCHEM_COORDINATE_TYPE>
1
5
255

> <PUBCHEM_BONDANNOTATIONS>
10  13  8
11  14  8
13  14  8
2  10  8
2  11  8

$$$$
