446157
  -OEChem-07092505182D

 61 62  0     1  0  0  0  0  0999 V2000
    7.1962   -4.6270    0.0000 S   0  0  0  0  0  0  0  0  0  0  0  0
    2.0000    0.3730    0.0000 F   0  0  0  0  0  0  0  0  0  0  0  0
    6.3301    1.8730    0.0000 O   0  0  0  0  0  0  0  0  0  0  0  0
    7.1962    3.3730    0.0000 O   0  0  0  0  0  0  0  0  0  0  0  0
    6.6962   -5.4930    0.0000 O   0  0  0  0  0  0  0  0  0  0  0  0
    7.6962   -3.7610    0.0000 O   0  0  0  0  0  0  0  0  0  0  0  0
    9.7942    4.8730    0.0000 O   0  0  0  0  0  0  0  0  0  0  0  0
    8.0622    4.8730    0.0000 O   0  0  0  0  0  0  0  0  0  0  0  0
    7.1962   -2.6270    0.0000 N   0  0  0  0  0  0  0  0  0  0  0  0
    6.3301   -4.1270    0.0000 N   0  0  3  0  0  0  0  0  0  0  0  0
    5.4641   -2.6270    0.0000 N   0  0  0  0  0  0  0  0  0  0  0  0
    8.1962   -1.6270    0.0000 C   0  0  0  0  0  0  0  0  0  0  0  0
    7.1962   -1.6270    0.0000 C   0  0  0  0  0  0  0  0  0  0  0  0
    8.0622    1.8730    0.0000 C   0  0  0  0  0  0  0  0  0  0  0  0
    6.3301   -1.1270    0.0000 C   0  0  0  0  0  0  0  0  0  0  0  0
    7.1962    1.3730    0.0000 C   0  0  1  0  0  0  0  0  0  0  0  0
    8.0622    2.8730    0.0000 C   0  0  2  0  0  0  0  0  0  0  0  0
    5.4641   -1.6270    0.0000 C   0  0  0  0  0  0  0  0  0  0  0  0
    6.3301   -0.1270    0.0000 C   0  0  0  0  0  0  0  0  0  0  0  0
    7.1962    0.3730    0.0000 C   0  0  0  0  0  0  0  0  0  0  0  0
    8.6962   -2.4930    0.0000 C   0  0  0  0  0  0  0  0  0  0  0  0
    8.6962   -0.7610    0.0000 C   0  0  0  0  0  0  0  0  0  0  0  0
    8.9282    3.3730    0.0000 C   0  0  0  0  0  0  0  0  0  0  0  0
    6.3301   -3.1270    0.0000 C   0  0  0  0  0  0  0  0  0  0  0  0
    4.5981   -1.1270    0.0000 C   0  0  0  0  0  0  0  0  0  0  0  0
    5.4641   -4.6270    0.0000 C   0  0  0  0  0  0  0  0  0  0  0  0
    3.7321   -1.6270    0.0000 C   0  0  0  0  0  0  0  0  0  0  0  0
    4.5981   -0.1270    0.0000 C   0  0  0  0  0  0  0  0  0  0  0  0
    8.9282    4.3730    0.0000 C   0  0  0  0  0  0  0  0  0  0  0  0
    8.0622   -5.1270    0.0000 C   0  0  0  0  0  0  0  0  0  0  0  0
    2.8660   -1.1270    0.0000 C   0  0  0  0  0  0  0  0  0  0  0  0
    3.7321    0.3730    0.0000 C   0  0  0  0  0  0  0  0  0  0  0  0
    2.8660   -0.1270    0.0000 C   0  0  0  0  0  0  0  0  0  0  0  0
    7.8862   -2.1639    0.0000 H   0  0  0  0  0  0  0  0  0  0  0  0
    8.2742    1.2904    0.0000 H   0  0  0  0  0  0  0  0  0  0  0  0
    8.6728    1.9807    0.0000 H   0  0  0  0  0  0  0  0  0  0  0  0
    6.6592    1.0630    0.0000 H   0  0  0  0  0  0  0  0  0  0  0  0
    8.0622    3.4930    0.0000 H   0  0  0  0  0  0  0  0  0  0  0  0
    5.7932    0.1830    0.0000 H   0  0  0  0  0  0  0  0  0  0  0  0
    7.8162    0.3730    0.0000 H   0  0  0  0  0  0  0  0  0  0  0  0
    8.1592   -2.8030    0.0000 H   0  0  0  0  0  0  0  0  0  0  0  0
    9.0062   -3.0300    0.0000 H   0  0  0  0  0  0  0  0  0  0  0  0
    9.2331   -2.1830    0.0000 H   0  0  0  0  0  0  0  0  0  0  0  0
    9.2331   -1.0710    0.0000 H   0  0  0  0  0  0  0  0  0  0  0  0
    9.0062   -0.2240    0.0000 H   0  0  0  0  0  0  0  0  0  0  0  0
    8.1592   -0.4510    0.0000 H   0  0  0  0  0  0  0  0  0  0  0  0
    9.1403    2.7904    0.0000 H   0  0  0  0  0  0  0  0  0  0  0  0
    9.5388    3.4807    0.0000 H   0  0  0  0  0  0  0  0  0  0  0  0
    6.3301    2.4930    0.0000 H   0  0  0  0  0  0  0  0  0  0  0  0
    7.1962    3.9930    0.0000 H   0  0  0  0  0  0  0  0  0  0  0  0
    5.1541   -4.0901    0.0000 H   0  0  0  0  0  0  0  0  0  0  0  0
    4.9272   -4.9370    0.0000 H   0  0  0  0  0  0  0  0  0  0  0  0
    5.7741   -5.1639    0.0000 H   0  0  0  0  0  0  0  0  0  0  0  0
    3.7321   -2.2470    0.0000 H   0  0  0  0  0  0  0  0  0  0  0  0
    5.1350    0.1830    0.0000 H   0  0  0  0  0  0  0  0  0  0  0  0
    7.7522   -5.6639    0.0000 H   0  0  0  0  0  0  0  0  0  0  0  0
    8.5991   -5.4370    0.0000 H   0  0  0  0  0  0  0  0  0  0  0  0
    8.3722   -4.5901    0.0000 H   0  0  0  0  0  0  0  0  0  0  0  0
    2.3291   -1.4370    0.0000 H   0  0  0  0  0  0  0  0  0  0  0  0
    3.7321    0.9930    0.0000 H   0  0  0  0  0  0  0  0  0  0  0  0
    9.7942    5.4930    0.0000 H   0  0  0  0  0  0  0  0  0  0  0  0
  1  5  2  0  0  0  0
  1  6  2  0  0  0  0
  1 10  1  0  0  0  0
  1 30  1  0  0  0  0
  2 33  1  0  0  0  0
 16  3  1  1  0  0  0
  3 49  1  0  0  0  0
 17  4  1  1  0  0  0
  4 50  1  0  0  0  0
  7 29  1  0  0  0  0
  7 61  1  0  0  0  0
  8 29  2  0  0  0  0
  9 13  2  0  0  0  0
  9 24  1  0  0  0  0
 10 24  1  0  0  0  0
 10 26  1  0  0  0  0
 11 18  1  0  0  0  0
 11 24  2  0  0  0  0
 12 13  1  0  0  0  0
 12 21  1  0  0  0  0
 12 22  1  0  0  0  0
 12 34  1  0  0  0  0
 13 15  1  0  0  0  0
 14 16  1  0  0  0  0
 14 17  1  0  0  0  0
 14 35  1  0  0  0  0
 14 36  1  0  0  0  0
 15 18  2  0  0  0  0
 15 19  1  0  0  0  0
 16 20  1  0  0  0  0
 16 37  1  0  0  0  0
 17 23  1  0  0  0  0
 17 38  1  0  0  0  0
 18 25  1  0  0  0  0
 19 20  2  0  0  0  0
 19 39  1  0  0  0  0
 20 40  1  0  0  0  0
 21 41  1  0  0  0  0
 21 42  1  0  0  0  0
 21 43  1  0  0  0  0
 22 44  1  0  0  0  0
 22 45  1  0  0  0  0
 22 46  1  0  0  0  0
 23 29  1  0  0  0  0
 23 47  1  0  0  0  0
 23 48  1  0  0  0  0
 25 27  2  0  0  0  0
 25 28  1  0  0  0  0
 26 51  1  0  0  0  0
 26 52  1  0  0  0  0
 26 53  1  0  0  0  0
 27 31  1  0  0  0  0
 27 54  1  0  0  0  0
 28 32  2  0  0  0  0
 28 55  1  0  0  0  0
 30 56  1  0  0  0  0
 30 57  1  0  0  0  0
 30 58  1  0  0  0  0
 31 33  2  0  0  0  0
 31 59  1  0  0  0  0
 32 33  1  0  0  0  0
 32 60  1  0  0  0  0
M  END
> <PUBCHEM_COMPOUND_CID>
446157

> <PUBCHEM_COMPOUND_CANONICALIZED>
1

> <PUBCHEM_CACTVS_COMPLEXITY>
767

> <PUBCHEM_CACTVS_HBOND_ACCEPTOR>
10

> <PUBCHEM_CACTVS_HBOND_DONOR>
3

> <PUBCHEM_CACTVS_ROTATABLE_BOND>
10

> <PUBCHEM_CACTVS_SUBSKEYS>
AAADceB7OQBAAAAAAAAAAAAAAAAAAAAAAAA8QAAAAAAAAAABwAAAHwQASAAADRyhng6zmJYIEgKoAyTybHCCgCkhAKAJmCE4RJiIPLbA2dGEdAhtoAJI2CeY7MROAAAAAAAAAAAAAAAAAAAAAAAAAAAAAA==

> <PUBCHEM_IUPAC_OPENEYE_NAME>
(E,3R,5S)-7-[4-(4-fluorophenyl)-6-isopropyl-2-[methyl(methylsulfonyl)amino]pyrimidin-5-yl]-3,5-dihydroxy-hept-6-enoic acid

> <PUBCHEM_IUPAC_CAS_NAME>
(E,3R,5S)-7-[4-(4-fluorophenyl)-2-[methyl(methylsulfonyl)amino]-6-propan-2-yl-5-pyrimidinyl]-3,5-dihydroxy-6-heptenoic acid

> <PUBCHEM_IUPAC_NAME_MARKUP>
(<I>E</I>,3<I>R</I>,5<I>S</I>)-7-[4-(4-fluorophenyl)-2-[methyl(methylsulfonyl)amino]-6-propan-2-ylpyrimidin-5-yl]-3,5-dihydroxyhept-6-enoic acid

> <PUBCHEM_IUPAC_NAME>
(E,3R,5S)-7-[4-(4-fluorophenyl)-2-[methyl(methylsulfonyl)amino]-6-propan-2-ylpyrimidin-5-yl]-3,5-dihydroxyhept-6-enoic acid

> <PUBCHEM_IUPAC_SYSTEMATIC_NAME>
(E,3R,5S)-7-[4-(4-fluorophenyl)-2-[methyl(methylsulfonyl)amino]-6-propan-2-yl-pyrimidin-5-yl]-3,5-bis(oxidanyl)hept-6-enoic acid

> <PUBCHEM_IUPAC_TRADITIONAL_NAME>
(E,3R,5S)-7-[4-(4-fluorophenyl)-6-isopropyl-2-[mesyl(methyl)amino]pyrimidin-5-yl]-3,5-dihydroxy-hept-6-enoic acid

> <PUBCHEM_IUPAC_INCHI>
InChI=1S/C22H28FN3O6S/c1-13(2)20-18(10-9-16(27)11-17(28)12-19(29)30)21(14-5-7-15(23)8-6-14)25-22(24-20)26(3)33(4,31)32/h5-10,13,16-17,27-28H,11-12H2,1-4H3,(H,29,30)/b10-9+/t16-,17-/m1/s1

> <PUBCHEM_IUPAC_INCHIKEY>
BPRHUIZQVSMCRT-VEUZHWNKSA-N

> <PUBCHEM_XLOGP3_AA>
1.6

> <PUBCHEM_EXACT_MASS>
481.16828496

> <PUBCHEM_MOLECULAR_FORMULA>
C22H28FN3O6S

> <PUBCHEM_MOLECULAR_WEIGHT>
481.5

> <PUBCHEM_SMILES>
CC(C)C1=NC(=NC(=C1/C=C/[C@H](C[C@H](CC(=O)O)O)O)C2=CC=C(C=C2)F)N(C)S(=O)(=O)C

> <PUBCHEM_CONNECTIVITY_SMILES>
CC(C)C1=NC(=NC(=C1C=CC(CC(CC(=O)O)O)O)C2=CC=C(C=C2)F)N(C)S(=O)(=O)C

> <PUBCHEM_CACTVS_TPSA>
149

> <PUBCHEM_MONOISOTOPIC_WEIGHT>
481.16828496

> <PUBCHEM_TOTAL_CHARGE>
0

> <PUBCHEM_HEAVY_ATOM_COUNT>
33

> <PUBCHEM_ATOM_DEF_STEREO_COUNT>
2

> <PUBCHEM_ATOM_UDEF_STEREO_COUNT>
0

> <PUBCHEM_BOND_DEF_STEREO_COUNT>
1

> <PUBCHEM_BOND_UDEF_STEREO_COUNT>
0

> <PUBCHEM_ISOTOPIC_ATOM_COUNT>
0

> <PUBCHEM_COMPONENT_COUNT>
1

> <PUBCHEM_CACTVS_TAUTO_COUNT>
-1

> <PUBCHEM_COORDINATE_TYPE>
1
5
255

> <PUBCHEM_BONDANNOTATIONS>
11  18  8
11  24  8
13  15  8
15  18  8
25  27  8
25  28  8
27  31  8
28  32  8
16  3  5
31  33  8
32  33  8
17  4  5
9  13  8
9  24  8

$$$$
